VeraGrid/tmp.m
function mpc = tmp
%% MATPOWER Case Format : Version 2
mpc.version = '2';

%% system MVA base
mpc.baseMVA = 100.0;

%% bus data
%% bus_i type Pd Qd Gs Bs area Vm Va baseKV zone Vmax Vmin
mpc.bus = [
    1.0 3.0 0.0 0.0 0.0 0.0 1.0 1.06 0.0 135.0 1.0 1.0600000001 1.0599999999 ;
    2.0 2.0 21.7 12.7 0.0 0.0 1.0 1.03 -4.81142389938438 135.0 1.0 1.07 0.94 ;
    3.0 2.0 94.2 19.0 0.0 0.0 1.0 1.01 -13.001777011749137 135.0 1.0 1.07 0.94 ;
    4.0 1.0 47.79999999999998 -3.8999999999999986 0.0 0.0 1.0 0.9986214741231235 -10.225796764276444 135.0 1.0 1.07 0.94 ;
    5.0 1.0 7.599999999999994 1.6000000000000014 0.0 0.0 1.0 1.0010443997363005 -8.649278517610746 135.0 1.0 1.07 0.94 ;
    6.0 2.0 11.199999999999989 7.5000000000000036 0.0 0.0 1.0 1.03 -14.390599306316673 0.208 1.0 1.07 0.94 ;
    7.0 1.0 0.0 0.0 0.0 0.0 1.0 1.0211282955356105 -13.460301665736157 14.0 1.0 1.07 0.94 ;
    8.0 2.0 0.0 0.0 0.0 0.0 1.0 1.03 -13.460301665736157 12.0 1.0 1.07 0.94 ;
    9.0 1.0 29.5 16.6 0.0 19.0 1.0 1.0169177317758102 -15.168169453823081 0.208 1.0 1.07 0.94 ;
    10.0 1.0 9.0 5.799999999999997 0.0 0.0 1.0 1.0115085573444471 -15.339793315038012 0.208 1.0 1.07 0.94 ;
    11.0 1.0 3.5 1.7999999999999972 0.0 0.0 1.0 1.01704141962382 -15.007906311059479 0.208 1.0 1.07 0.94 ;
    12.0 1.0 6.099999999999994 1.6000000000000014 0.0 0.0 1.0 1.014692017854651 -15.313087079889414 0.208 1.0 1.07 0.94 ;
    13.0 1.0 13.5 5.799999999999997 0.0 0.0 1.0 1.009800381091269 -15.40194629211532 0.208 1.0 1.07 0.94 ;
    14.0 1.0 14.899999999999977 5.0 0.0 0.0 1.0 0.9950890385953519 -16.35190942240038 0.208 1.0 1.07 0.94 ;
];

%% generator data
%% bus Pg Qg Qmax Qmin Vg mBase status Pmax Pmin ...
mpc.gen = [
    1.0 0.0 0.0 10.0000000001 -1e-10 1.06 1.0 1.0 332.4000000001 -1e-10 0.0 0.0 0.0 0.0 0.0 0.0 0.0 0.0 0.0 0.0 0.0 0.0 0.0 0.0 0.0 ;
    2.0 40.0 0.0 50.0000000001 -40.0000000001 1.03 nan 1.0 140.0000000001 -1e-10 0.0 0.0 0.0 0.0 0.0 0.0 0.0 0.0 0.0 0.0 0.0 0.0 0.0 0.0 0.0 ;
    3.0 0.0 0.0 40.0000000001 -1e-10 1.01 nan 1.0 100.0000000001 -1e-10 0.0 0.0 0.0 0.0 0.0 0.0 0.0 0.0 0.0 0.0 0.0 0.0 0.0 0.0 0.0 ;
    6.0 0.0 0.0 24.0000000001 -6.0000000001 1.03 nan 1.0 100.0000000001 -1e-10 0.0 0.0 0.0 0.0 0.0 0.0 0.0 0.0 0.0 0.0 0.0 0.0 0.0 0.0 0.0 ;
    8.0 0.0 0.0 24.0000000001 -6.0000000001 1.03 nan 1.0 100.0000000001 -1e-10 0.0 0.0 0.0 0.0 0.0 0.0 0.0 0.0 0.0 0.0 0.0 0.0 0.0 0.0 0.0 ;
];

%% branch data
%% fbus tbus r x b rateA rateB rateC ratio angle status angmin angmax
mpc.branch = [
    1.0 2.0 0.019379999999999998 0.05916999999999999 0.0528 9899.999999999998 0.0 0.0 0.0 0.0 1.0 -360.0 360.0 0.0 0.0 0.0 0.0 0.0 0.0 0.0 0.0 0.0;
    1.0 5.0 0.05403 0.22304 0.0492 9899.999999999998 0.0 0.0 0.0 0.0 1.0 -360.0 360.0 0.0 0.0 0.0 0.0 0.0 0.0 0.0 0.0 0.0;
    2.0 3.0 0.046990000000000004 0.19797 0.043800000000000006 9899.999999999998 0.0 0.0 0.0 0.0 1.0 -360.0 360.0 0.0 0.0 0.0 0.0 0.0 0.0 0.0 0.0 0.0;
    2.0 4.0 0.058109999999999995 0.17632 0.03400000000000001 9899.999999999998 0.0 0.0 0.0 0.0 1.0 -360.0 360.0 0.0 0.0 0.0 0.0 0.0 0.0 0.0 0.0 0.0;
    2.0 5.0 0.05695 0.17388 0.034600000000000006 9899.999999999998 0.0 0.0 0.0 0.0 1.0 -360.0 360.0 0.0 0.0 0.0 0.0 0.0 0.0 0.0 0.0 0.0;
    3.0 4.0 0.06701 0.17103 0.012800000000000002 9899.999999999998 0.0 0.0 0.0 0.0 1.0 -360.0 360.0 0.0 0.0 0.0 0.0 0.0 0.0 0.0 0.0 0.0;
    4.0 5.0 0.01335 0.04211 0.0 9899.999999999998 0.0 0.0 0.0 0.0 1.0 -360.0 360.0 0.0 0.0 0.0 0.0 0.0 0.0 0.0 0.0 0.0;
    6.0 11.0 0.09498 0.19890000000000002 0.0 9900.0 0.0 0.0 0.0 0.0 1.0 -360.0 360.0 0.0 0.0 0.0 0.0 0.0 0.0 0.0 0.0 0.0;
    6.0 12.0 0.12291 0.25581 0.0 9900.0 0.0 0.0 0.0 0.0 1.0 -360.0 360.0 0.0 0.0 0.0 0.0 0.0 0.0 0.0 0.0 0.0;
    6.0 13.0 0.06615 0.13027 0.0 9900.0 0.0 0.0 0.0 0.0 1.0 -360.0 360.0 0.0 0.0 0.0 0.0 0.0 0.0 0.0 0.0 0.0;
    9.0 10.0 0.031810000000000005 0.08449999999999999 0.0 9900.0 0.0 0.0 0.0 0.0 1.0 -360.0 360.0 0.0 0.0 0.0 0.0 0.0 0.0 0.0 0.0 0.0;
    9.0 14.0 0.12711 0.27038 0.0 9900.0 0.0 0.0 0.0 0.0 1.0 -360.0 360.0 0.0 0.0 0.0 0.0 0.0 0.0 0.0 0.0 0.0;
    10.0 11.0 0.08205 0.19207000000000002 0.0 9900.0 0.0 0.0 0.0 0.0 1.0 -360.0 360.0 0.0 0.0 0.0 0.0 0.0 0.0 0.0 0.0 0.0;
    12.0 13.0 0.22092 0.19988 0.0 9900.0 0.0 0.0 0.0 0.0 1.0 -360.0 360.0 0.0 0.0 0.0 0.0 0.0 0.0 0.0 0.0 0.0;
    13.0 14.0 0.17093 0.34802 0.0 9900.0 0.0 0.0 0.0 0.0 1.0 -360.0 360.0 0.0 0.0 0.0 0.0 0.0 0.0 0.0 0.0 0.0;
    4.0 7.0 0.0 0.20912 -0.0 9900.0 0.0 0.0 0.9780000000000001 0.0 1.0 -360.0 360.0 0.0 0.0 0.0 0.0 0.0 0.0 0.0 0.0 0.0;
    4.0 9.0 0.0 0.55618 -0.0 9900.0 0.0 0.0 0.9690000000000001 0.0 1.0 -360.0 360.0 0.0 0.0 0.0 0.0 0.0 0.0 0.0 0.0 0.0;
    5.0 6.0 0.0 0.25202 -0.0 9900.0 0.0 0.0 0.932 0.0 1.0 -360.0 360.0 0.0 0.0 0.0 0.0 0.0 0.0 0.0 0.0 0.0;
    7.0 8.0 0.0 0.17614999999999997 -0.0 9900.0 0.0 0.0 0.0 0.0 1.0 -360.0 360.0 0.0 0.0 0.0 0.0 0.0 0.0 0.0 0.0 0.0;
    7.0 9.0 0.0 0.11001 -0.0 9900.0 0.0 0.0 0.0 0.0 1.0 -360.0 360.0 0.0 0.0 0.0 0.0 0.0 0.0 0.0 0.0 0.0;
];

%% generator cost data
%% 1 startup shutdown n x1 y1 ... xn yn
%% 2 startup shutdown n c(n-1) ... c0
mpc.gencost = [
    2.0 0.0 0.0 3.0 0.0430293 20.0 0.0;
    2.0 0.0 0.0 3.0 0.25 20.0 0.0;
    2.0 0.0 0.0 3.0 0.01 40.0 0.0;
    2.0 0.0 0.0 3.0 0.01 40.0 0.0;
    2.0 0.0 0.0 3.0 0.01 40.0 0.0;
];

